5

Sr      0.000000000000000      0.000000000000000      0.000000000000000
Ni      1.949271805000000      1.949271805000000      1.949271805000000
O       1.949271805000000      1.949271805000000      0.000000000000000
O       0.000000000000000      1.949271805000000      1.949271805000000
O       1.949271805000000      0.000000000000000      1.949271805000000
