5

Sr      0.000000000000000      0.000000000000000      0.000000000000000
Fe      1.914406895000000      1.914406895000000      1.914406895000000
O       0.000000000000000      1.914406895000000      1.914406895000000
O       1.914406895000000      0.000000000000000      1.914406895000000
O       1.914406895000000      1.914406895000000      0.000000000000000
