5

Sr      1.942534665000000      1.942534665000000      1.942534665000000
Co      0.000000000000000      0.000000000000000      0.000000000000000
O       0.000000000000000      0.000000000000000      1.942534665000000
O       1.942534665000000      0.000000000000000      0.000000000000000
O       0.000000000000000      1.942534665000000      0.000000000000000
