48
SrCoO3 structure
Sr 1.97271611 5.89080642 13.81967445
O 3.92007677 3.94344576 13.93099080
Sr 5.88380032 5.86187672 13.87807087
Sr 5.85183561 2.01168692 13.89314785
Sr 1.97271611 5.89080642 9.98415635
Sr 1.97271611 5.89080642 6.00169145
Co 3.93090727 3.93261526 7.99292390
Co 3.88215450 3.98136803 11.90191540
O 3.92302865 5.98445599 7.99292390
O 1.87906654 3.94049389 7.99292390
O 0.05576622 5.79925380 7.99292390
O 0.06946640 5.82300865 11.90191540
O 3.98440303 5.83109785 11.90191540
O 2.03242469 3.87911950 11.90191540
O 3.92007677 3.94344576 6.11300780
O 3.92007677 3.94344576 9.87284000
Sr 5.88380032 5.86187672 6.06008787
Sr 5.88380032 5.86187672 9.92575993
Sr 5.85183561 2.01168692 6.07516485
Sr 5.85183561 2.01168692 9.91068295
O 5.75818604 0.06137439 11.90191540
O 5.94338824 3.92863681 11.90191540
O 3.93488573 1.92013430 11.90191540
O 5.91963339 3.91493664 7.99292390
O 3.94858590 1.94388915 7.99292390
O 5.91154419 0.00000000 7.99292390
O 0.09039976 3.89096827 13.72603065
O 0.03792227 0.06129127 13.93099080
Sr 2.00164582 1.97972222 13.87807087
O 3.96951926 0.01184877 13.98679165
Co 0.04471925 3.93664878 7.99292390
Co 0.05136031 3.93000773 11.90191540
Co 0.04875277 0.05046077 7.99292390
Co 0.00000000 0.09921354 11.90191540
O 0.09039976 3.89096827 10.07780015
O 0.09039976 3.89096827 5.90804765
O 0.04087414 2.10230149 7.99292390
O 0.10224853 1.94894334 11.90191540
O 0.03792227 0.06129127 6.11300780
O 0.03792227 0.06129127 9.87284000
Sr 2.00164582 1.97972222 6.06008787
Sr 2.00164582 1.97972222 9.92575993
Co 3.92383875 0.05752928 11.90191540
Co 3.93047980 0.05088823 7.99292390
O 3.96951926 0.01184877 6.16880865
O 3.96951926 0.01184877 9.81703915
O 2.06123373 0.04648231 11.90191540
O 2.03747888 0.03278214 7.99292390
